Circuit: * C:\Users\Fran\Documents\Universidad\Circuitos\Práctica 5\Diagrama P5.asc


Date: Mon Dec 19 13:59:15 2022
Total elapsed time: 0.032 seconds.

tnom = 27
temp = 27
method = trap
totiter = 0
traniter = 0
tranpoints = 0
accept = 0
rejected = 0
matrix size = 3
fillins = 1
solver = Normal

