Circuit: * C:\Users\Fran\Desktop\Universidad\Tercero\Circuitos Eléctricos y Señales\Práctica 5\Diagrama_Ej3.asc


Date: Thu Dec 22 17:33:35 2022
Total elapsed time: 0.013 seconds.

tnom = 27
temp = 27
method = trap
totiter = 0
traniter = 0
tranpoints = 0
accept = 0
rejected = 0
matrix size = 4
fillins = 0
solver = Normal

