Circuit: * C:\Users\Fran\Desktop\Universidad\Tercero\Circuitos Eléctricos y Señales\Ejercicio Tema 4\diagrama.asc

.OP point found by inspection.

Date: Thu Dec 15 20:07:48 2022
Total elapsed time: 15.643 seconds.

tnom = 27
temp = 27
method = modified trap
totiter = 10000146
traniter = 10000146
tranpoints = 5000074
accept = 5000063
rejected = 11
matrix size = 3
fillins = 0
solver = Normal
Matrix Compiler1: 50 bytes object code size  0.0/0.0/[0.0]
Matrix Compiler2:      15 opcodes  0.0/[0.0]/0.0

